
     RDKit          3D

 37 41  0  0  0  0  0  0  0  0999 V2000
    8.9266  -29.1769  -30.3270 C   0  0  0  0  0  0  0  0  0  0  0  0
   10.1247  -29.7949  -29.7165 C   0  0  0  0  0  0  0  0  0  0  0  0
   10.6711  -30.9690  -30.1928 C   0  0  0  0  0  0  0  0  0  0  0  0
   11.8002  -31.5023  -29.5760 C   0  0  0  0  0  0  0  0  0  0  0  0
   12.3901  -30.8835  -28.4943 C   0  0  0  0  0  0  0  0  0  0  0  0
   13.5483  -31.4950  -27.9170 N   0  0  0  0  0  0  0  0  0  0  0  0
   14.0895  -32.7049  -28.4455 C   0  0  0  0  0  0  0  0  0  0  0  0
   13.4913  -33.1951  -29.4326 O   0  0  0  0  0  0  0  0  0  0  0  0
   15.2781  -33.3341  -27.8619 C   0  0  0  0  0  0  0  0  0  0  0  0
   15.9587  -32.8069  -26.8104 C   0  0  0  0  0  0  0  0  0  0  0  0
   17.0826  -33.4599  -26.3057 C   0  0  0  0  0  0  0  0  0  0  0  0
   17.5268  -34.6486  -26.8586 C   0  0  0  0  0  0  0  0  0  0  0  0
   18.7106  -35.3316  -26.3244 C   0  0  0  0  0  0  0  0  0  0  0  0
   19.1267  -36.4892  -27.0309 N   0  0  0  0  0  0  0  0  0  0  0  0
   18.2282  -37.5810  -27.0881 C   0  0  0  0  0  0  0  0  0  0  0  0
   17.9891  -38.2082  -28.4084 C   0  0  0  0  0  0  0  0  0  0  0  0
   18.9812  -38.0164  -29.4092 N   0  0  0  0  0  0  0  0  0  0  0  0
   19.1641  -39.1861  -30.2692 C   0  0  0  0  0  0  0  0  0  0  0  0
   20.2505  -37.6212  -28.8456 C   0  0  0  0  0  0  0  0  0  0  0  0
   19.9836  -36.2855  -28.1473 C   0  0  0  0  0  0  0  0  0  0  0  0
   16.8152  -35.1590  -27.9252 C   0  0  0  0  0  0  0  0  0  0  0  0
   15.7006  -34.5288  -28.4397 C   0  0  0  0  0  0  0  0  0  0  0  0
   11.8430  -29.7298  -28.0361 C   0  0  0  0  0  0  0  0  0  0  0  0
   10.7189  -29.1647  -28.6214 C   0  0  0  0  0  0  0  0  0  0  0  0
   10.1253  -27.9591  -28.1648 N   0  0  0  0  0  0  0  0  0  0  0  0
   10.6667  -27.2563  -27.0458 C   0  0  0  0  0  0  0  0  0  0  0  0
   11.7481  -27.6770  -26.3689 N   0  0  0  0  0  0  0  0  0  0  0  0
   12.2729  -27.0343  -25.3192 C   0  0  0  0  0  0  0  0  0  0  0  0
   11.6655  -25.8656  -24.9054 C   0  0  0  0  0  0  0  0  0  0  0  0
   10.5589  -25.4072  -25.5740 C   0  0  0  0  0  0  0  0  0  0  0  0
    9.8870  -24.1660  -25.1591 C   0  0  0  0  0  0  0  0  0  0  0  0
   10.3226  -23.4103  -24.0941 C   0  0  0  0  0  0  0  0  0  0  0  0
    9.6773  -22.2444  -23.7185 C   0  0  0  0  0  0  0  0  0  0  0  0
    8.5663  -21.8539  -24.4536 C   0  0  0  0  0  0  0  0  0  0  0  0
    8.1400  -22.5873  -25.4905 N   0  0  0  0  0  0  0  0  0  0  0  0
    8.7777  -23.7221  -25.8469 C   0  0  0  0  0  0  0  0  0  0  0  0
   10.1033  -26.1051  -26.6045 N   0  0  0  0  0  0  0  0  0  0  0  0
  1  2  1  0
  2  3  2  0
  3  4  1  0
  4  5  2  0
  5  6  1  0
  6  7  1  0
  7  8  2  0
  7  9  1  0
  9 10  2  0
 10 11  1  0
 11 12  2  0
 12 13  1  0
 13 14  1  0
 14 15  1  0
 15 16  1  0
 16 17  1  0
 17 18  1  0
 17 19  1  0
 19 20  1  0
 12 21  1  0
 21 22  2  0
  5 23  1  0
 23 24  2  0
 24 25  1  0
 25 26  1  0
 26 27  2  0
 27 28  1  0
 28 29  2  0
 29 30  1  0
 30 31  1  0
 31 32  2  0
 32 33  1  0
 33 34  2  0
 34 35  1  0
 35 36  2  0
 30 37  2  0
 24  2  1  0
 37 26  1  0
 22  9  1  0
 36 31  1  0
 20 14  1  0
M  END
